Circuit: * C:\Users\evanm\Documents\Projects\Camera\Sims\Draft1.asc

Ignoring empty pin current: Ix(u1:1)
Ignoring empty pin current: Ix(u1:2)

Date: Thu Sep 05 00:32:09 2024
Total elapsed time: 0.044 seconds.

tnom = 27
temp = 27
method = trap
totiter = 0
traniter = 0
tranpoints = 0
accept = 0
rejected = 0
matrix size = 8
fillins = 5
solver = Normal

