Circuit: * C:\Users\evanm\Documents\Projects\Camera\Sims\PoR.asc

Limiting fall time of source v1 to 1
WARNING: Less than two connections to node OUT.  This node is used by A1.
Direct Newton iteration for .op point succeeded.

Date: Tue Aug 27 21:11:46 2024
Total elapsed time: 0.047 seconds.

tnom = 27
temp = 27
method = modified trap
totiter = 2412
traniter = 2409
tranpoints = 1205
accept = 1174
rejected = 31
matrix size = 5
fillins = 0
solver = Normal
Matrix Compiler1: 96 bytes object code size  0.0/0.0/[0.0]
Matrix Compiler2: off  [0.0]/0.0/0.0

